Version 4.1
SHEET 1 880 680
WIRE 400 -96 320 -96
WIRE 320 0 320 -96
WIRE 176 16 128 16
WIRE 256 16 176 16
WIRE 288 16 256 16
WIRE 512 16 352 16
WIRE 176 64 176 16
WIRE 176 64 160 64
WIRE 176 112 176 64
WIRE 176 112 160 112
WIRE 112 144 96 144
WIRE 272 160 272 128
WIRE 272 160 160 160
WIRE 320 160 272 160
WIRE 448 160 384 160
WIRE 80 192 48 192
WIRE 96 192 96 144
WIRE 96 192 80 192
WIRE 176 208 160 208
WIRE 256 224 256 16
WIRE 352 224 352 192
WIRE 352 224 256 224
WIRE 96 240 96 192
WIRE 112 240 96 240
WIRE 176 256 176 208
WIRE 176 256 160 256
WIRE 176 288 176 256
WIRE 512 288 512 16
WIRE 512 288 176 288
WIRE 80 304 80 192
WIRE 448 304 448 160
WIRE 448 304 80 304
FLAG 128 16 B
IOPIN 128 16 In
FLAG 48 192 A
IOPIN 48 192 In
FLAG 400 -16 0
FLAG 320 32 0
FLAG 272 128 OUT
IOPIN 272 128 Out
SYMBOL pmos4 112 64 R0
SYMATTR InstName M1
SYMBOL nmos4 112 160 R0
SYMATTR InstName M2
SYMBOL transgate1 336 112 R0
SYMATTR InstName X1
SYMBOL inva1 320 16 R0
SYMATTR InstName X2
SYMBOL voltage 400 -112 R0
SYMATTR InstName V1
