Version 4.1
SHEET 1 1224 680
WIRE 416 -32 208 -32
WIRE 208 80 208 -32
WIRE 208 80 192 80
WIRE 208 112 208 80
WIRE 208 112 192 112
WIRE 64 160 -16 160
WIRE 144 160 144 144
WIRE 144 160 64 160
WIRE 224 208 192 208
WIRE 112 240 0 240
WIRE 144 240 112 240
WIRE 224 240 224 208
WIRE 224 240 192 240
WIRE 192 272 192 256
WIRE 192 272 128 272
WIRE 240 272 192 272
WIRE 112 304 112 240
WIRE 192 304 112 304
WIRE 144 320 128 320
WIRE 256 320 240 320
WIRE 64 352 64 160
WIRE 80 352 64 352
WIRE 192 352 192 304
WIRE 144 368 144 320
WIRE 144 368 128 368
WIRE 256 368 256 320
WIRE 256 368 240 368
WIRE 144 384 144 368
WIRE 192 384 144 384
WIRE 240 384 240 368
WIRE 240 384 192 384
WIRE 192 432 192 384
FLAG 192 256 OUT
IOPIN 192 256 Out
FLAG -16 160 A
IOPIN -16 160 In
FLAG 0 240 B
IOPIN 0 240 In
FLAG 192 432 Vss
IOPIN 192 432 In
FLAG 416 -32 Vdd
IOPIN 416 -32 In
SYMBOL pmos4 144 64 R0
SYMATTR InstName M1
SYMATTR Value pmos45hp
SYMATTR Value2 l=100n w=562n
SYMBOL pmos4 144 160 R0
SYMATTR InstName M2
SYMATTR Value pmos45hp
SYMATTR Value2 l=100n w=562n
SYMBOL nmos4 192 272 R0
SYMATTR InstName M3
SYMATTR Value nmos45hp
SYMATTR Value2 l=100n w=187n
SYMBOL nmos4 80 272 R0
SYMATTR InstName M4
SYMATTR Value nmos45hp
SYMATTR Value2 l=100n w=187n
TEXT 568 136 Left 2 !.inc "C:\\Users\\marsh\\Downloads\\cmosedu_models.txt"
TEXT -88 408 Left 2 !.tran 100ms
