Version 4.1
SHEET 1 2260 752
WIRE 192 -416 192 -464
WIRE 432 -416 432 -448
WIRE 576 -416 576 -448
WIRE 160 -400 80 -400
WIRE 304 -400 224 -400
WIRE 1024 -400 304 -400
WIRE 80 -368 80 -400
WIRE 192 -336 192 -384
WIRE 432 -304 432 -336
WIRE 512 -304 432 -304
WIRE 576 -304 576 -336
WIRE 576 -304 512 -304
WIRE 80 -256 80 -288
WIRE 192 -144 192 -208
WIRE 160 -128 80 -128
WIRE 320 -128 224 -128
WIRE 544 -128 544 -176
WIRE 544 -128 320 -128
WIRE 1120 -128 544 -128
WIRE 512 -112 432 -112
WIRE 672 -112 576 -112
WIRE 928 -112 672 -112
WIRE 1424 -96 1328 -96
WIRE 80 -80 80 -128
WIRE 432 -80 432 -112
WIRE 192 -64 192 -112
WIRE 544 -48 544 -96
WIRE 2032 -48 1904 -48
WIRE 2144 -48 2032 -48
WIRE 1424 0 1424 -16
WIRE 1152 16 656 16
WIRE 80 32 80 0
WIRE 432 32 432 0
WIRE 1328 32 1328 -96
WIRE 1328 32 1264 32
WIRE 1904 32 1904 -48
WIRE 2144 32 2144 -48
WIRE 1152 48 1104 48
WIRE 1792 48 1680 48
WIRE 1872 48 1792 48
WIRE 2112 48 1936 48
WIRE 2256 48 2176 48
WIRE 1152 80 944 80
WIRE 1168 80 1152 80
WIRE 1152 112 1072 112
WIRE 1680 112 1680 48
WIRE 1680 112 1264 112
WIRE 1904 128 1904 64
WIRE 2016 128 1904 128
WIRE 2144 128 2144 64
WIRE 2144 128 2016 128
WIRE 192 144 192 96
WIRE 928 144 928 -112
WIRE 1152 144 928 144
WIRE 160 160 80 160
WIRE 320 160 224 160
WIRE 544 160 544 112
WIRE 544 160 320 160
WIRE 1072 160 1072 112
WIRE 1072 160 544 160
WIRE 512 176 432 176
WIRE 672 176 576 176
WIRE 944 176 944 80
WIRE 944 176 672 176
WIRE 1120 176 1120 -128
WIRE 1152 176 1120 176
WIRE 1328 192 1264 192
WIRE 80 208 80 160
WIRE 432 208 432 176
WIRE 1024 208 1024 -400
WIRE 1152 208 1024 208
WIRE 192 224 192 176
WIRE 1328 224 1328 192
WIRE 544 256 544 192
WIRE 80 320 80 288
WIRE 432 320 432 288
WIRE 1616 368 1264 368
WIRE 1648 368 1616 368
WIRE 1888 384 1760 384
WIRE 192 400 192 384
WIRE 1616 400 1616 368
WIRE 1648 400 1616 400
WIRE 192 432 192 400
WIRE 1616 432 1616 400
WIRE 1648 432 1616 432
WIRE 160 448 80 448
WIRE 320 448 224 448
WIRE 528 448 528 400
WIRE 528 448 320 448
WIRE 1104 448 1104 48
WIRE 1104 448 528 448
WIRE 496 464 432 464
WIRE 656 464 656 16
WIRE 656 464 560 464
WIRE 672 464 656 464
WIRE 1616 464 1616 432
WIRE 1648 464 1616 464
WIRE 1808 464 1760 464
WIRE 1648 496 1344 496
WIRE 80 512 80 448
WIRE 192 512 192 464
WIRE 432 512 432 464
WIRE 528 528 528 480
WIRE 1344 528 1344 496
WIRE 1648 528 1344 528
WIRE 1824 544 1760 544
WIRE 1344 560 1344 528
WIRE 1648 560 1344 560
WIRE 1824 576 1824 544
WIRE 1344 592 1344 560
WIRE 80 624 80 592
WIRE 432 624 432 592
FLAG 512 -304 0
FLAG 432 -448 VDD
FLAG 576 -448 VSS
FLAG 192 -464 VDD
FLAG 192 -208 VDD
FLAG 192 96 VDD
FLAG 192 400 VDD
FLAG 528 400 VDD
FLAG 544 112 VDD
FLAG 544 -176 VDD
FLAG 192 -336 VSS
FLAG 192 -64 VSS
FLAG 192 224 VSS
FLAG 192 512 VSS
FLAG 528 528 VSS
FLAG 544 256 VSS
FLAG 544 -48 VSS
FLAG 320 160 X3
FLAG 672 176 X2
FLAG 320 448 X1
FLAG 672 464 X0
FLAG 672 -112 T0
FLAG 320 -128 T1
FLAG 304 -400 T2
FLAG 432 624 VSS
FLAG 80 624 VSS
FLAG 80 320 VSS
FLAG 432 320 VSS
FLAG 432 32 VSS
FLAG 80 32 VSS
FLAG 80 -256 VSS
FLAG 2032 -48 VDD
FLAG 2016 128 VSS
FLAG 1792 48 ABS
FLAG 1264 448 0
FLAG 1344 672 0
FLAG 1424 0 0
FLAG 1888 464 0
FLAG 1824 576 0
FLAG 1328 224 0
SYMBOL voltage 80 192 R0
WINDOW 123 0 0 Left 0
WINDOW 39 0 0 Left 0
SYMATTR InstName V1
SYMATTR Value PWL file=x3.txt
SYMBOL voltage 432 192 R0
WINDOW 123 0 0 Left 0
WINDOW 39 0 0 Left 0
SYMATTR InstName V2
SYMATTR Value PWL file=x2.txt
SYMBOL voltage 80 496 R0
WINDOW 123 0 0 Left 0
WINDOW 39 0 0 Left 0
SYMATTR InstName V3
SYMATTR Value PWL file=x1.txt
SYMBOL voltage 432 496 R0
WINDOW 123 0 0 Left 0
WINDOW 39 0 0 Left 0
SYMATTR InstName V4
SYMATTR Value PWL file=x0.txt
SYMBOL voltage 80 -384 R0
WINDOW 123 0 0 Left 0
WINDOW 39 0 0 Left 0
SYMATTR InstName V5
SYMATTR Value PWL file=thr2.txt
SYMBOL voltage 80 -96 R0
WINDOW 123 0 0 Left 0
WINDOW 39 0 0 Left 0
SYMATTR InstName V7
SYMATTR Value PWL file=thr1.txt
SYMBOL voltage 432 -96 R0
WINDOW 123 0 0 Left 0
WINDOW 39 0 0 Left 0
SYMATTR InstName V8
SYMATTR Value PWL file=thr0.txt
SYMBOL BUF 192 -400 R0
SYMATTR InstName X1
SYMBOL BUF 192 -128 R0
SYMATTR InstName X2
SYMBOL BUF 192 160 R0
SYMATTR InstName X3
SYMBOL BUF 192 448 R0
SYMATTR InstName X4
SYMBOL BUF 528 464 R0
SYMATTR InstName X5
SYMBOL BUF 544 176 R0
SYMATTR InstName X6
SYMBOL BUF 544 -112 R0
SYMATTR InstName X7
SYMBOL voltage 432 -432 R0
WINDOW 123 0 0 Left 0
WINDOW 39 0 0 Left 0
SYMATTR InstName V6
SYMATTR Value 1
SYMBOL voltage 576 -432 R0
WINDOW 123 0 0 Left 0
WINDOW 39 0 0 Left 0
SYMATTR InstName V9
SYMATTR Value 0
SYMBOL INV32 1904 48 R0
SYMATTR InstName X8
SYMBOL INV128 2144 48 R0
SYMATTR InstName X9
SYMBOL EE115Cbaseline 1200 112 R0
SYMATTR InstName X10
SYMBOL EE115Cbaseline 1696 464 R0
SYMATTR InstName X11
SYMBOL voltage 1264 352 R0
WINDOW 123 0 0 Left 0
WINDOW 39 0 0 Left 0
SYMATTR InstName V10
SYMATTR Value PULSE(0 1 0 10p 10p 1000p 2000p)
SYMBOL voltage 1344 576 R0
WINDOW 123 0 0 Left 0
WINDOW 39 0 0 Left 0
SYMATTR InstName V11
SYMATTR Value 0
SYMBOL voltage 1424 -112 R0
WINDOW 123 0 0 Left 0
WINDOW 39 0 0 Left 0
SYMATTR InstName V12
SYMATTR Value 1
SYMBOL voltage 1888 368 R0
WINDOW 123 0 0 Left 0
WINDOW 39 0 0 Left 0
SYMATTR InstName V13
SYMATTR Value 1
TEXT 152 696 Left 2 !.tran 0 50n 0 2p
TEXT 152 736 Left 2 !.inc "C:\\Users\\marsh\\Documents\\LTspice\\cmosedu_models.txt"
