Version 4.1
SHEET 1 880 680
WIRE 160 16 80 16
WIRE 160 160 160 16
WIRE 208 160 160 160
WIRE 432 176 272 176
WIRE 208 192 80 192
WIRE 160 400 160 160
WIRE 320 400 160 400
WIRE 448 400 384 400
WIRE 352 496 240 496
WIRE 448 512 448 400
WIRE 352 560 352 496
WIRE 416 560 352 560
WIRE 592 560 480 560
WIRE 160 624 160 400
WIRE 448 624 448 592
WIRE 448 624 160 624
FLAG 80 96 0
FLAG 80 272 0
FLAG 240 576 0
SYMBOL voltage 80 0 R0
WINDOW 123 0 0 Left 0
WINDOW 39 0 0 Left 0
SYMATTR InstName V1
SYMATTR Value PULSE(0 1 0 5ns 5ns 10ms 20ms)
SYMBOL xor1 192 192 R0
SYMATTR InstName X1
SYMBOL voltage 80 176 R0
WINDOW 123 0 0 Left 0
WINDOW 39 0 0 Left 0
SYMATTR InstName V2
SYMATTR Value PULSE(0 0 0 5ns 5ns 10ms 20ms)
SYMBOL transgate1 432 512 R0
SYMATTR InstName X2
SYMBOL inva1 352 400 R0
SYMATTR InstName X3
SYMBOL voltage 240 480 R0
WINDOW 123 0 0 Left 0
WINDOW 39 0 0 Left 0
SYMATTR InstName V3
SYMATTR Value 1
TEXT 40 296 Left 2 !.tran 100ms
