Version 4.1
SHEET 1 1096 680
WIRE 16 -64 -48 -64
WIRE -48 -32 -48 -64
WIRE -48 -32 -64 -32
WIRE -32 -32 -48 -32
WIRE 240 -16 128 -16
WIRE -32 16 -32 -32
WIRE -32 16 -64 16
WIRE -112 48 -144 48
WIRE 128 48 128 -16
WIRE -64 96 -64 64
WIRE 32 96 32 -176
WIRE 32 96 -64 96
WIRE 96 96 32 96
WIRE 256 96 160 96
WIRE -208 112 -240 112
WIRE -144 112 -144 48
WIRE -144 112 -208 112
WIRE -64 112 -64 96
WIRE 16 144 16 -64
WIRE 128 144 128 128
WIRE 128 144 16 144
WIRE 176 144 128 144
WIRE -48 160 -64 160
WIRE 144 160 80 160
WIRE -144 192 -144 112
WIRE -112 192 -144 192
WIRE 144 192 144 160
WIRE -48 208 -48 160
WIRE -48 208 -64 208
WIRE 112 208 64 208
WIRE 176 208 176 144
WIRE 176 224 144 224
WIRE -208 240 -208 112
WIRE 256 240 256 96
WIRE 256 240 -208 240
WIRE -64 272 -64 208
WIRE 64 272 64 208
WIRE 64 272 -64 272
WIRE 240 272 240 -16
WIRE 240 272 64 272
WIRE -64 288 -64 272
WIRE -64 288 -240 288
FLAG -240 288 B
IOPIN -240 288 In
FLAG -240 112 A
IOPIN -240 112 In
FLAG 32 -176 OUT
IOPIN 32 -176 Out
FLAG 80 160 Vdd
IOPIN 80 160 In
FLAG 176 224 Vss
IOPIN 176 224 In
SYMBOL pmos4 -112 -32 R0
SYMATTR InstName M1
SYMATTR Value pmos45hp
SYMATTR Value2 l=100n w=600n
SYMBOL nmos4 -112 112 R0
SYMATTR InstName M2
SYMATTR Value nmos45hp
SYMATTR Value2 l=100n w=300n
SYMBOL transgate1 112 48 R0
SYMATTR InstName X1
SYMBOL inva1 144 208 R0
SYMATTR InstName X2
TEXT 440 96 Left 2 !.inc "C:\\Users\\marsh\\Downloads\\cmosedu_models.txt"
TEXT -368 432 Left 2 !.tran 100ms
